Warning: Step size potentially too small.
 Reference value : -4.00000e+01******
** ngspice-36 : Circuit level simulation program
** The U. C. Berkeley CAD Group
** Copyright 1985-1994, Regents of the University of California.
** Copyright 2001-2020, The ngspice team.
** Please get your ngspice manual from http://ngspice.sourceforge.net/docs.html
** Please file your bug-reports at http://ngspice.sourceforge.net/bugrep.html
** Creation Date: Sat Jan  1 18:54:42 UTC 2022
******

No compatibility mode selected!


Circuit: cicsimgen tran

Doing analysis at TEMP = 125.000000 and TNOM = 27.000000


No. of Data Rows : 34
binary raw file "tran_SchGtVtAttTh.raw"
ngspice-36 done
